.MODEL 2SC1623 NPN
**************************************
*      Model Generated by Renesas Electronics Corporation        *
*         All Rights Reserved        *
*Commercial Use or Resale Restricted *
**************************************
+ IS=37.434E-15
+ BF=211.05
+ VAF=535.19
+ IKF=1
+ ISE=37.434E-15
+ NE=1.5790
+ BR=3.2909
+ VAR=100
+ IKR=34.632E-3
+ ISC=223.21E-15
+ NC=2.0893
+ NK=.797
+ RB=1.6225
+ RC=.71602
+ CJE=21.352E-12
+ VJE=.36931
+ MJE=.38073
+ CJC=8.1208E-12
+ VJC=.35
+ MJC=.35629
+ TF=472.90E-12
+ XTF=50.942
+ VTF=98.503
+ ITF=1.2630
+ TR=10.000E-9
+ NR=1
+ NF=1
+ TRC1=0.0E-3
+ TRB1=0.0E-2
+ XTB=1.7
+ XTI=6
