*include /usr/share/gEDA/models/bjt/2N2907.mod
*include /usr/share/gEDA/models/bjt/2N4126.mod
*include /usr/share/gEDA/models/bjt/2N2222.mod
include 2SC1623.mod
include BC807.mod
.model 1N4004 D

